INIT MASTER(S)
NASTRAN SYSTEM(319)=1
ID Rotorcraft,FEMAP
SOL NLSTATIC 
CEND
  TITLE = Test_blade
INIT MASTER(S)
NASTRAN SYSTEM(319)=1
ID Rotorcraft,FEMAP
SOL NLSTATIC
CEND
  TITLE = Test_blade
  ECHO = NONE
  DISPLACEMENT(PLOT) = ALL
  SPCFORCE(PLOT) = ALL
  FORCE(PLOT,CORNER) = ALL
  NLSTRESS(PLOT) = ALL
  STRESS(PLOT,CORNER) = ALL
  METHOD = 1
  SPC = 1
  NLPARM = 1
  LOAD = 1
BEGIN BULK

NLPARM,1,1,,ITER,1

PARAM,TINY,0.999
PARAM,PRGPST,YES
PARAM,LGDISP,1
PARAM,POST,-1
PARAM,OGEOM,NO
PARAM,AUTOSPC,YES
PARAM,K6ROT,100.
PARAM,MAXRATIO,1.+17
PARAM,GRDPNT,0
PARAM,NMLOOP,1
PARAM,TESTNEG,1 

EIGRL          1            100.       6       0                    MASS

RFORCE         1    4006       0       6.952   0.      0.      1.       2





$$ CONTROL CHAIN 
$$ Grid point 

GRID        4000       0.2492558 .1323052.3497-4       0
GRID        4002       0-3.499-3   .2955.0052592       0
GRID        4003       0-4.022-3.2954009     -.2       0
GRID        4004       0.2492558 .1323052.3497-4       0
GRID        4005       0.2492558 .1323052.3497-4       0
GRID        4006       0.2492558 .1323052.3497-4       0


$ Constraint
RBE2        1531    4000  123456      41    1414    1413    1412    1411+          
+           1410    1409    1408    1407    1406     342    1033    1032+       
+           1031    1030    1029    1028    1027    1026     693     692+       
+           1025     691     690     689     688     687     686     685+       
+            684   
RBE2        1533    4000  123456    4002
CELAS2      1534  75000.    4003       3    4002       3  

$ Feathering Hinge
RBE2        1535    4004   12346    4000
$ Lag Hinge
RBE2        1536    4005   12345    4004
$ Flap Hinge 
RBE2        1537    4006   12356    4005  
$ Fictituous Springs       
CELAS2      1538   100.    4005       6    4004       6      0.       
CELAS2      1539   100.    4006       4    4005       4






$$ FEMAP EXPORT $$ 
CORD2C         1       0      0.      0.      0.      0.      0.      1.+FEMAPC1
+FEMAPC1      1.      0.      1.        
CORD2S         2       0      0.      0.      0.      0.      0.      1.+FEMAPC2
+FEMAPC2      1.      0.      1.        
$ Femap Constraint Set 1 : Constraint
SPC1           1    1236    4003
SPC1           1   12345    4006
$ Femap Property 1 : front Spar
PSHELL         1       1    .008       1               1              0.
$ Femap Property 2 : Trailing
PCOMP          2              0.                                        +       
+              2    5.-4     45.     YES       3     .01      0.     YES+       
+              2    5.-4     45.     YES
$ Femap Property 3 : Balancing Mass
$ Femap PropShape 3 : 5,0,0.006,0.,0.,0.,0.,0.
$ Femap PropMethod 3 : 5,0,1,0.3
$ Femap PropOrient 3 : 5,0,0.,1.,2.,3.,4.,4.,-0.006,0.
PBAR           3       4 1.131-41.0179-91.0179-9 2.034-9      0.        +       
+             0.   -6.-3    .006      0.      0.    .006   -6.-3      0.+       
+       .8861862.8861862      0.
$ Femap Material 1 : Light Alloy
MAT1           1  7.2+10             .33   2810.      0.      0.        
$ Femap Material 2 : Glass E fabric 0/90
MAT8           2  5.2+10 4.88+10     .06  3.02+9      0.      0.   1111.+       
+             0.      0.      0.                                        +       
+                               
$ Femap Material 3 : Rohacell 110
MAT1           3  1.57+8  5.69+7            110.      0.      0.        
$ Femap Material 4 : Balancing Mass
MAT1           4      1.                  19250.      0.      0.        
$ Femap Material 5 : PitchLink
MAT1           5      1.                      0.      0.      0.     
GRID           1       0  .58981  4.41027.4316-4       0
GRID           2       0.5544878  4.4102-4.331-3       0
GRID           3       0.5189619  4.4102-7.876-3       0
GRID           4       0.4834004  4.4102-.011046       0
GRID           5       0.4478083  4.4102 -.01384       0
GRID           6       0.4121863  4.4102-.016252       0
GRID           7       0.3765379  4.4102-.018191       0
GRID           8       0.3408614  4.4102-.019589       0
GRID           9       0 .305166  4.4102-.020242       0
GRID          10       0 .269466  4.4102-.019946       0
GRID          11       0.2338018  4.4102-.018335       0
GRID          12       0 .2337164.272014-.018432       0
GRID          13       0.23363034.133827 -.01853       0
GRID          14       0.23354453.995641-.018627       0
GRID          15       0.23345873.857455-.018724       0
GRID          16       0 .2333733.719268-.018822       0
GRID          17       0.23328723.581082-.018919       0
GRID          18       0.23320143.442896-.019016       0
GRID          19       0.23311563.304709-.019114       0
GRID          20       0.23302993.166523-.019211       0
$ ... 1499 like lines cut

CQUAD4         1       2       1       2      81      80                
CQUAD4         2       2       2       3      82      81                
CQUAD4         3       2       3       4      83      82                
CQUAD4         4       2       4       5      84      83                
CQUAD4         5       2       5       6      85      84                
CQUAD4         6       2       6       7      86      85                
CQUAD4         7       2       7       8      87      86                
CQUAD4         8       2       8       9      88      87                
CQUAD4         9       2       9      10      89      88                
CQUAD4        10       2      10      11      12      89                
CQUAD4        11       2      80      81      90      79                
CQUAD4        12       2      81      82      91      90                
CQUAD4        13       2      82      83      92      91                
CQUAD4        14       2      83      84      93      92                
CQUAD4        15       2      84      85      94      93                
CQUAD4        16       2      85      86      95      94                
CQUAD4        17       2      86      87      96      95                
CQUAD4        18       2      87      88      97      96                
CQUAD4        19       2      88      89      98      97                
CQUAD4        20       2      89      12      13      98                
$ ... 1480 like lines cut
CBAR        1501       3     723     722      1.      0.      0.
CBAR        1502       3     722     721      1.      0.      0.
CBAR        1503       3     721     720      1.      0.      0.
CBAR        1504       3     720     719      1.      0.      0.
CBAR        1505       3     719     718      1.      0.      0.
CBAR        1506       3     718     717      1.      0.      0.
CBAR        1507       3     717     716      1.      0.      0.
CBAR        1508       3     716     715      1.      0.      0.
CBAR        1509       3     715     714      1.      0.      0.
CBAR        1510       3     714     713      1.      0.      0.
CBAR        1511       3     713     712      1.      0.      0.
CBAR        1512       3     712     711      1.      0.      0.
CBAR        1513       3     711     710      1.      0.      0.
CBAR        1514       3     710     709      1.      0.      0.
CBAR        1515       3     709     708      1.      0.      0.
CBAR        1516       3     708     707      1.      0.      0.
CBAR        1517       3     707     706      1.      0.      0.
CBAR        1518       3     706     705      1.      0.      0.
CBAR        1519       3     705     704      1.      0.      0.
CBAR        1520       3     704     703      1.      0.      0.
$ ... 10 like lines cut
ENDDATA
